Using SPARSE 1.3 as Direct Linear Solver

Note: No compatibility mode selected!


Circuit: * auto-generated circuit

Doing analysis at TEMP = 27.000000 and TNOM = 27.000000


No. of Data Rows : 1
@q_q1[ib] = 1.127984e-05
@q_q1[ic] = 1.181138e-02
@q_q1[ie] = -1.18227e-02
@q_q1[is] = 1.874411e-13
@r_gnd_n1[i] = 1.200000e-11
@r_gnd_n2[i] = 7.201614e-13
@r_gnd_n3[i] = 1.886223e-13
@r_rb[i] = 1.127984e-05
@r_rc[i] = 1.181138e-02
n1 = 1.200000e+01
n2 = 7.201614e-01
n3 = 1.886223e-01
v_v1#branch = -1.18227e-02
ngspice-42 done
