Using SPARSE 1.3 as Direct Linear Solver

Note: No compatibility mode selected!


Circuit: * auto-generated circuit

Doing analysis at TEMP = 27.000000 and TNOM = 27.000000


No. of Data Rows : 1
	Node                                  Voltage
	----                                  -------
	----	-------
	n2                               6.666667e+00
	n1                               1.000000e+01

	Source	Current
	------	-------

	v1#branch                        -3.33333e-03

 Resistor models (Simple linear resistor)
      model                     R

        rsh                     0
     narrow                     0
      short                     0
        tc1                     0
        tc2                     0
        tce                     0
       defw                 1e-05
          l                 1e-05
         kf                     0
         af                     0
          r                     0
     bv_max                 1e+99
         lf                     1
         wf                     1
         ef                     1

 Resistor: Simple linear resistor
     device                    r2                    r1
      model                     R                     R
 resistance                  2000                  1000
         ac                  2000                  1000
      dtemp                     0                     0
     bv_max                 1e+99                 1e+99
      noisy                     1                     1
          i            0.00333333            0.00333333
          p             0.0222222             0.0111111

 Vsource: Independent voltage source
     device                    v1
         dc                    10
      acmag                     0
      pulse         -
        sin         -
        exp         -
        pwl         -
       sffm         -
         am         -
    trnoise         -
   trrandom         -
    portnum                     0
         z0                     0
        pwr                     0
       freq                     0
      phase                     0
          i           -0.00333333
          p            -0.0333333


Total analysis time (seconds) = 0

Total elapsed time (seconds) = 0.004 

Total DRAM available = 7848.211 MB.
DRAM currently available =  430.676 MB.
Maximum ngspice program size =   21.344 MB.
Current ngspice program size =   12.500 MB.

Shared ngspice pages =   10.625 MB.
Text (code) pages =    6.156 MB.
Stack = 0 bytes.
Library pages =    2.109 MB.

